H112_v05.fds
Generated by PyroSim - Version 2020.2.0520
05.03.2021 10:43:09

-------------User Section (not generated by PyroSim)-------------

&VENT MB='XMIN', SURF_ID='OPEN' /
&VENT MB='XMAX', SURF_ID='OPEN' /
&VENT MB='YMIN', SURF_ID='OPEN' /
&VENT MB='YMAX', SURF_ID='OPEN' /
&VENT MB='ZMAX', SURF_ID='OPEN' /


--------------------PyroSim-generated Section--------------------

&HEAD CHID='H112_v05'/
&TIME T_END=4000.0/
&DUMP DT_DEVC=10.0, DT_HRR=10.0, DT_PL3D=120.0, DT_SLCF=60.0, WRITE_XYZ=.TRUE., PLOT3D_QUANTITY(1:4)='TEMPERATURE','U-VELOCITY','V-VELOCITY','W-VELOCITY'/

&MESH ID='Mesh01-a-a-a', IJK=88,72,22, XB=-2.0,20.0,-2.0,16.0,-0.25,5.25/
&MESH ID='Mesh01-a-a-b', IJK=88,72,27, XB=-2.0,20.0,-2.0,16.0,5.25,12.0/
&MESH ID='Mesh01-a-b-a', IJK=80,72,22, XB=20.0,40.0,-2.0,16.0,-0.25,5.25/
&MESH ID='Mesh01-a-b-b', IJK=80,72,27, XB=20.0,40.0,-2.0,16.0,5.25,12.0/
&MESH ID='Mesh01-a-c-a', IJK=88,72,22, XB=40.0,62.0,-2.0,16.0,-0.25,5.25/
&MESH ID='Mesh01-a-c-b', IJK=88,72,27, XB=40.0,62.0,-2.0,16.0,5.25,12.0/
&MESH ID='Mesh01-b-a', IJK=88,32,49, XB=-2.0,20.0,16.0,24.0,-0.25,12.0/
&MESH ID='Mesh01-b-b', IJK=80,32,49, XB=20.0,40.0,16.0,24.0,-0.25,12.0/
&MESH ID='Mesh01-b-c', IJK=88,32,49, XB=40.0,62.0,16.0,24.0,-0.25,12.0/
&MESH ID='Mesh01-c-a-a', IJK=88,68,22, XB=-2.0,20.0,24.0,41.0,-0.25,5.25/
&MESH ID='Mesh01-c-a-b', IJK=88,68,27, XB=-2.0,20.0,24.0,41.0,5.25,12.0/
&MESH ID='Mesh01-c-b-a', IJK=80,68,22, XB=20.0,40.0,24.0,41.0,-0.25,5.25/
&MESH ID='Mesh01-c-b-b', IJK=80,68,27, XB=20.0,40.0,24.0,41.0,5.25,12.0/
&MESH ID='Mesh01-c-c-a', IJK=88,68,22, XB=40.0,62.0,24.0,41.0,-0.25,5.25/
&MESH ID='Mesh01-c-c-b', IJK=88,68,27, XB=40.0,62.0,24.0,41.0,5.25,12.0/


&REAC ID='DIN 18230-4',
      FYI='DIN 18230-4 SPEC',
      FUEL='REAC_FUEL',
      C=1.0,
      H=0.136,
      O=1.136,
      CRITICAL_FLAME_TEMPERATURE=1327.0,
      AUTO_IGNITION_TEMPERATURE=0.0,
      CO_YIELD=0.01,
      SOOT_YIELD=0.01,
      HEAT_OF_COMBUSTION=1.728E4,
      RADIATIVE_FRACTION=0.2/

&DEVC ID='Raum3-Reihe1-01', QUANTITY='TEMPERATURE', XYZ=0.125,16.125,9.625/
&DEVC ID='Raum3-Reihe1-02', QUANTITY='TEMPERATURE', XYZ=4.125,16.125,9.625/
&DEVC ID='Raum3-Reihe1-03', QUANTITY='TEMPERATURE', XYZ=8.125,16.125,9.625/
&DEVC ID='Raum3-Reihe1-04', QUANTITY='TEMPERATURE', XYZ=12.125,16.125,9.625/
&DEVC ID='Raum3-Reihe1-05', QUANTITY='TEMPERATURE', XYZ=16.125,16.125,9.625/
&DEVC ID='Raum3-Reihe1-06', QUANTITY='TEMPERATURE', XYZ=20.125,16.125,9.625/
&DEVC ID='Raum3-Reihe1-07', QUANTITY='TEMPERATURE', XYZ=24.125,16.125,9.625/
&DEVC ID='Raum3-Reihe1-08', QUANTITY='TEMPERATURE', XYZ=28.125,16.125,9.625/
&DEVC ID='Raum3-Reihe1-09', QUANTITY='TEMPERATURE', XYZ=32.125,16.125,9.625/
&DEVC ID='Raum3-Reihe1-10', QUANTITY='TEMPERATURE', XYZ=36.125,16.125,9.625/
&DEVC ID='Raum3-Reihe1-11', QUANTITY='TEMPERATURE', XYZ=40.125,16.125,9.625/
&DEVC ID='Raum3-Reihe1-12', QUANTITY='TEMPERATURE', XYZ=44.125,16.125,9.625/
&DEVC ID='Raum3-Reihe1-13', QUANTITY='TEMPERATURE', XYZ=48.125,16.125,9.625/
&DEVC ID='Raum3-Reihe1-14', QUANTITY='TEMPERATURE', XYZ=52.125,16.125,9.625/
&DEVC ID='Raum3-Reihe1-15', QUANTITY='TEMPERATURE', XYZ=56.125,16.125,9.625/
&DEVC ID='Raum3-Reihe1-16', QUANTITY='TEMPERATURE', XYZ=59.875,16.125,9.625/
&DEVC ID='Raum3-Reihe2-01', QUANTITY='TEMPERATURE', XYZ=0.125,20.125,9.625/
&DEVC ID='Raum3-Reihe3-04', QUANTITY='TEMPERATURE', XYZ=0.125,23.875,9.625/
&DEVC ID='Raum3-Reihe2-02', QUANTITY='TEMPERATURE', XYZ=4.125,20.125,9.625/
&DEVC ID='Raum3-Reihe2-03', QUANTITY='TEMPERATURE', XYZ=8.125,20.125,9.625/
&DEVC ID='Raum3-Reihe2-04', QUANTITY='TEMPERATURE', XYZ=12.125,20.125,9.625/
&DEVC ID='Raum3-Reihe2-05', QUANTITY='TEMPERATURE', XYZ=16.125,20.125,9.625/
&DEVC ID='Raum3-Reihe2-06', QUANTITY='TEMPERATURE', XYZ=20.125,20.125,9.625/
&DEVC ID='Raum3-Reihe2-07', QUANTITY='TEMPERATURE', XYZ=24.125,20.125,9.625/
&DEVC ID='Raum3-Reihe2-08', QUANTITY='TEMPERATURE', XYZ=28.125,20.125,9.625/
&DEVC ID='Raum3-Reihe2-09', QUANTITY='TEMPERATURE', XYZ=32.125,20.125,9.625/
&DEVC ID='Raum3-Reihe2-10', QUANTITY='TEMPERATURE', XYZ=36.125,20.125,9.625/
&DEVC ID='Raum3-Reihe2-11', QUANTITY='TEMPERATURE', XYZ=40.125,20.125,9.625/
&DEVC ID='Raum3-Reihe2-12', QUANTITY='TEMPERATURE', XYZ=44.125,20.125,9.625/
&DEVC ID='Raum3-Reihe2-13', QUANTITY='TEMPERATURE', XYZ=48.125,20.125,9.625/
&DEVC ID='Raum3-Reihe2-14', QUANTITY='TEMPERATURE', XYZ=52.125,20.125,9.625/
&DEVC ID='Raum3-Reihe2-15', QUANTITY='TEMPERATURE', XYZ=56.125,20.125,9.625/
&DEVC ID='Raum3-Reihe2-16', QUANTITY='TEMPERATURE', XYZ=59.875,20.125,9.625/
&DEVC ID='Raum3-Reihe3-01', QUANTITY='TEMPERATURE', XYZ=4.125,23.875,9.625/
&DEVC ID='Raum3-Reihe3-02', QUANTITY='TEMPERATURE', XYZ=8.125,23.875,9.625/
&DEVC ID='Raum3-Reihe3-03', QUANTITY='TEMPERATURE', XYZ=12.125,23.875,9.625/
&DEVC ID='Raum3-Reihe3-05', QUANTITY='TEMPERATURE', XYZ=16.125,23.875,9.625/
&DEVC ID='Raum3-Reihe3-06', QUANTITY='TEMPERATURE', XYZ=20.125,23.875,9.625/
&DEVC ID='Raum3-Reihe3-07', QUANTITY='TEMPERATURE', XYZ=24.125,23.875,9.625/
&DEVC ID='Raum3-Reihe3-08', QUANTITY='TEMPERATURE', XYZ=28.125,23.875,9.625/
&DEVC ID='Raum3-Reihe3-09', QUANTITY='TEMPERATURE', XYZ=32.125,23.875,9.625/
&DEVC ID='Raum3-Reihe3-10', QUANTITY='TEMPERATURE', XYZ=36.125,23.875,9.625/
&DEVC ID='Raum3-Reihe3-11', QUANTITY='TEMPERATURE', XYZ=40.125,23.875,9.625/
&DEVC ID='Raum3-Reihe3-12', QUANTITY='TEMPERATURE', XYZ=44.125,23.875,9.625/
&DEVC ID='Raum3-Reihe3-13', QUANTITY='TEMPERATURE', XYZ=48.125,23.875,9.625/
&DEVC ID='Raum3-Reihe3-14', QUANTITY='TEMPERATURE', XYZ=52.125,23.875,9.625/
&DEVC ID='Raum3-Reihe3-15', QUANTITY='TEMPERATURE', XYZ=56.125,23.875,9.625/
&DEVC ID='Raum3-Reihe3-16', QUANTITY='TEMPERATURE', XYZ=59.875,23.875,9.625/
&DEVC ID='Raum2-Reihe1-01', QUANTITY='TEMPERATURE', XYZ=0.125,0.125,4.625/
&DEVC ID='Raum2-Reihe1-02', QUANTITY='TEMPERATURE', XYZ=4.125,0.125,4.625/
&DEVC ID='Raum2-Reihe1-03', QUANTITY='TEMPERATURE', XYZ=8.125,0.125,4.625/
&DEVC ID='Raum2-Reihe1-04', QUANTITY='TEMPERATURE', XYZ=12.125,0.125,4.625/
&DEVC ID='Raum2-Reihe1-05', QUANTITY='TEMPERATURE', XYZ=16.125,0.125,4.625/
&DEVC ID='Raum2-Reihe1-06', QUANTITY='TEMPERATURE', XYZ=20.125,0.125,4.625/
&DEVC ID='Raum2-Reihe1-07', QUANTITY='TEMPERATURE', XYZ=24.125,0.125,4.625/
&DEVC ID='Raum2-Reihe1-08', QUANTITY='TEMPERATURE', XYZ=28.125,0.125,4.625/
&DEVC ID='Raum2-Reihe1-09', QUANTITY='TEMPERATURE', XYZ=32.125,0.125,4.625/
&DEVC ID='Raum2-Reihe1-10', QUANTITY='TEMPERATURE', XYZ=36.125,0.125,4.625/
&DEVC ID='Raum2-Reihe1-11', QUANTITY='TEMPERATURE', XYZ=40.125,0.125,4.625/
&DEVC ID='Raum2-Reihe1-12', QUANTITY='TEMPERATURE', XYZ=44.125,0.125,4.625/
&DEVC ID='Raum2-Reihe1-13', QUANTITY='TEMPERATURE', XYZ=48.125,0.125,4.625/
&DEVC ID='Raum2-Reihe1-14', QUANTITY='TEMPERATURE', XYZ=52.125,0.125,4.625/
&DEVC ID='Raum2-Reihe1-15', QUANTITY='TEMPERATURE', XYZ=56.125,0.125,4.625/
&DEVC ID='Raum2-Reihe1-16', QUANTITY='TEMPERATURE', XYZ=59.875,0.125,4.625/
&DEVC ID='Raum2-Reihe2-01', QUANTITY='TEMPERATURE', XYZ=0.125,4.125,4.625/
&DEVC ID='Raum2-Reihe2-02', QUANTITY='TEMPERATURE', XYZ=4.125,4.125,4.625/
&DEVC ID='Raum2-Reihe2-03', QUANTITY='TEMPERATURE', XYZ=8.125,4.125,4.625/
&DEVC ID='Raum2-Reihe2-04', QUANTITY='TEMPERATURE', XYZ=12.125,4.125,4.625/
&DEVC ID='Raum2-Reihe2-05', QUANTITY='TEMPERATURE', XYZ=16.125,4.125,4.625/
&DEVC ID='Raum2-Reihe2-06', QUANTITY='TEMPERATURE', XYZ=20.125,4.125,4.625/
&DEVC ID='Raum2-Reihe2-07', QUANTITY='TEMPERATURE', XYZ=24.125,4.125,4.625/
&DEVC ID='Raum2-Reihe2-08', QUANTITY='TEMPERATURE', XYZ=28.125,4.125,4.625/
&DEVC ID='Raum2-Reihe2-09', QUANTITY='TEMPERATURE', XYZ=32.125,4.125,4.625/
&DEVC ID='Raum2-Reihe2-10', QUANTITY='TEMPERATURE', XYZ=36.125,4.125,4.625/
&DEVC ID='Raum2-Reihe2-11', QUANTITY='TEMPERATURE', XYZ=40.125,4.125,4.625/
&DEVC ID='Raum2-Reihe2-12', QUANTITY='TEMPERATURE', XYZ=44.125,4.125,4.625/
&DEVC ID='Raum2-Reihe2-13', QUANTITY='TEMPERATURE', XYZ=48.125,4.125,4.625/
&DEVC ID='Raum2-Reihe2-14', QUANTITY='TEMPERATURE', XYZ=52.125,4.125,4.625/
&DEVC ID='Raum2-Reihe2-15', QUANTITY='TEMPERATURE', XYZ=56.125,4.125,4.625/
&DEVC ID='Raum2-Reihe2-16', QUANTITY='TEMPERATURE', XYZ=59.875,4.125,4.625/
&DEVC ID='Raum2-Reihe3-01', QUANTITY='TEMPERATURE', XYZ=0.125,8.125,4.625/
&DEVC ID='Raum2-Reihe3-02', QUANTITY='TEMPERATURE', XYZ=4.125,8.125,4.625/
&DEVC ID='Raum2-Reihe3-03', QUANTITY='TEMPERATURE', XYZ=8.125,8.125,4.625/
&DEVC ID='Raum2-Reihe3-04', QUANTITY='TEMPERATURE', XYZ=12.125,8.125,4.625/
&DEVC ID='Raum2-Reihe3-05', QUANTITY='TEMPERATURE', XYZ=16.125,8.125,4.625/
&DEVC ID='Raum2-Reihe3-06', QUANTITY='TEMPERATURE', XYZ=20.125,8.125,4.625/
&DEVC ID='Raum2-Reihe3-07', QUANTITY='TEMPERATURE', XYZ=24.125,8.125,4.625/
&DEVC ID='Raum2-Reihe3-08', QUANTITY='TEMPERATURE', XYZ=28.125,8.125,4.625/
&DEVC ID='Raum2-Reihe3-09', QUANTITY='TEMPERATURE', XYZ=32.125,8.125,4.625/
&DEVC ID='Raum2-Reihe3-10', QUANTITY='TEMPERATURE', XYZ=36.125,8.125,4.625/
&DEVC ID='Raum2-Reihe3-11', QUANTITY='TEMPERATURE', XYZ=40.125,8.125,4.625/
&DEVC ID='Raum2-Reihe3-12', QUANTITY='TEMPERATURE', XYZ=44.125,8.125,4.625/
&DEVC ID='Raum2-Reihe3-13', QUANTITY='TEMPERATURE', XYZ=48.125,8.125,4.625/
&DEVC ID='Raum2-Reihe3-14', QUANTITY='TEMPERATURE', XYZ=52.125,8.125,4.625/
&DEVC ID='Raum2-Reihe3-15', QUANTITY='TEMPERATURE', XYZ=56.125,8.125,4.625/
&DEVC ID='Raum2-Reihe3-16', QUANTITY='TEMPERATURE', XYZ=59.875,8.125,4.625/
&DEVC ID='Raum2-Reihe4-01', QUANTITY='TEMPERATURE', XYZ=0.125,12.125,4.625/
&DEVC ID='Raum2-Reihe4-02', QUANTITY='TEMPERATURE', XYZ=4.125,12.125,4.625/
&DEVC ID='Raum2-Reihe4-03', QUANTITY='TEMPERATURE', XYZ=8.125,12.125,4.625/
&DEVC ID='Raum2-Reihe4-04', QUANTITY='TEMPERATURE', XYZ=12.125,12.125,4.625/
&DEVC ID='Raum2-Reihe4-05', QUANTITY='TEMPERATURE', XYZ=16.125,12.125,4.625/
&DEVC ID='Raum2-Reihe4-06', QUANTITY='TEMPERATURE', XYZ=20.125,12.125,4.625/
&DEVC ID='Raum2-Reihe4-07', QUANTITY='TEMPERATURE', XYZ=24.125,12.125,4.625/
&DEVC ID='Raum2-Reihe4-08', QUANTITY='TEMPERATURE', XYZ=28.125,12.125,4.625/
&DEVC ID='Raum2-Reihe4-09', QUANTITY='TEMPERATURE', XYZ=32.125,12.125,4.625/
&DEVC ID='Raum2-Reihe4-10', QUANTITY='TEMPERATURE', XYZ=36.125,12.125,4.625/
&DEVC ID='Raum2-Reihe4-11', QUANTITY='TEMPERATURE', XYZ=40.125,12.125,4.625/
&DEVC ID='Raum2-Reihe4-12', QUANTITY='TEMPERATURE', XYZ=44.125,12.125,4.625/
&DEVC ID='Raum2-Reihe4-13', QUANTITY='TEMPERATURE', XYZ=48.125,12.125,4.625/
&DEVC ID='Raum2-Reihe4-14', QUANTITY='TEMPERATURE', XYZ=52.125,12.125,4.625/
&DEVC ID='Raum2-Reihe4-15', QUANTITY='TEMPERATURE', XYZ=56.125,12.125,4.625/
&DEVC ID='Raum2-Reihe4-16', QUANTITY='TEMPERATURE', XYZ=59.875,12.125,4.625/
&DEVC ID='Raum2-Reihe5-01', QUANTITY='TEMPERATURE', XYZ=0.125,15.875,4.625/
&DEVC ID='Raum2-Reihe5-02', QUANTITY='TEMPERATURE', XYZ=4.125,15.875,4.625/
&DEVC ID='Raum2-Reihe5-03', QUANTITY='TEMPERATURE', XYZ=8.125,15.875,4.625/
&DEVC ID='Raum2-Reihe5-04', QUANTITY='TEMPERATURE', XYZ=12.125,15.875,4.625/
&DEVC ID='Raum2-Reihe5-05', QUANTITY='TEMPERATURE', XYZ=16.125,15.875,4.625/
&DEVC ID='Raum2-Reihe5-06', QUANTITY='TEMPERATURE', XYZ=20.125,15.875,4.625/
&DEVC ID='Raum2-Reihe5-07', QUANTITY='TEMPERATURE', XYZ=24.125,15.875,4.625/
&DEVC ID='Raum2-Reihe5-08', QUANTITY='TEMPERATURE', XYZ=28.125,15.875,4.625/
&DEVC ID='Raum2-Reihe5-09', QUANTITY='TEMPERATURE', XYZ=32.125,15.875,4.625/
&DEVC ID='Raum2-Reihe5-10', QUANTITY='TEMPERATURE', XYZ=36.125,15.875,4.625/
&DEVC ID='Raum2-Reihe5-11', QUANTITY='TEMPERATURE', XYZ=40.125,15.875,4.625/
&DEVC ID='Raum2-Reihe5-12', QUANTITY='TEMPERATURE', XYZ=44.125,15.875,4.625/
&DEVC ID='Raum2-Reihe5-13', QUANTITY='TEMPERATURE', XYZ=48.125,15.875,4.625/
&DEVC ID='Raum2-Reihe5-14', QUANTITY='TEMPERATURE', XYZ=52.125,15.875,4.625/
&DEVC ID='Raum2-Reihe5-15', QUANTITY='TEMPERATURE', XYZ=56.125,15.875,4.625/
&DEVC ID='Raum2-Reihe5-16', QUANTITY='TEMPERATURE', XYZ=59.875,15.875,4.625/
&DEVC ID='Raum1-Reihe1-01', QUANTITY='TEMPERATURE', XYZ=0.125,24.125,4.625/
&DEVC ID='Raum1-Reihe1-02', QUANTITY='TEMPERATURE', XYZ=4.125,24.125,4.625/
&DEVC ID='Raum1-Reihe1-03', QUANTITY='TEMPERATURE', XYZ=8.125,24.125,4.625/
&DEVC ID='Raum1-Reihe1-04', QUANTITY='TEMPERATURE', XYZ=12.125,24.125,4.625/
&DEVC ID='Raum1-Reihe1-05', QUANTITY='TEMPERATURE', XYZ=16.125,24.125,4.625/
&DEVC ID='Raum1-Reihe1-06', QUANTITY='TEMPERATURE', XYZ=20.125,24.125,4.625/
&DEVC ID='Raum1-Reihe1-07', QUANTITY='TEMPERATURE', XYZ=24.125,24.125,4.625/
&DEVC ID='Raum1-Reihe1-08', QUANTITY='TEMPERATURE', XYZ=28.125,24.125,4.625/
&DEVC ID='Raum1-Reihe1-09', QUANTITY='TEMPERATURE', XYZ=32.125,24.125,4.625/
&DEVC ID='Raum1-Reihe1-10', QUANTITY='TEMPERATURE', XYZ=36.125,24.125,4.625/
&DEVC ID='Raum1-Reihe1-11', QUANTITY='TEMPERATURE', XYZ=40.125,24.125,4.625/
&DEVC ID='Raum1-Reihe1-12', QUANTITY='TEMPERATURE', XYZ=44.125,24.125,4.625/
&DEVC ID='Raum1-Reihe1-13', QUANTITY='TEMPERATURE', XYZ=48.125,24.125,4.625/
&DEVC ID='Raum1-Reihe1-14', QUANTITY='TEMPERATURE', XYZ=52.125,24.125,4.625/
&DEVC ID='Raum1-Reihe1-15', QUANTITY='TEMPERATURE', XYZ=56.125,24.125,4.625/
&DEVC ID='Raum1-Reihe1-16', QUANTITY='TEMPERATURE', XYZ=59.875,24.125,4.625/
&DEVC ID='Raum1-Reihe2-01', QUANTITY='TEMPERATURE', XYZ=0.125,28.125,4.625/
&DEVC ID='Raum1-Reihe2-02', QUANTITY='TEMPERATURE', XYZ=4.125,28.125,4.625/
&DEVC ID='Raum1-Reihe2-03', QUANTITY='TEMPERATURE', XYZ=8.125,28.125,4.625/
&DEVC ID='Raum1-Reihe2-04', QUANTITY='TEMPERATURE', XYZ=12.125,28.125,4.625/
&DEVC ID='Raum1-Reihe2-05', QUANTITY='TEMPERATURE', XYZ=16.125,28.125,4.625/
&DEVC ID='Raum1-Reihe2-06', QUANTITY='TEMPERATURE', XYZ=20.125,28.125,4.625/
&DEVC ID='Raum1-Reihe2-07', QUANTITY='TEMPERATURE', XYZ=24.125,28.125,4.625/
&DEVC ID='Raum1-Reihe2-08', QUANTITY='TEMPERATURE', XYZ=28.125,28.125,4.625/
&DEVC ID='Raum1-Reihe2-09', QUANTITY='TEMPERATURE', XYZ=32.125,28.125,4.625/
&DEVC ID='Raum1-Reihe2-10', QUANTITY='TEMPERATURE', XYZ=36.125,28.125,4.625/
&DEVC ID='Raum1-Reihe2-11', QUANTITY='TEMPERATURE', XYZ=40.125,28.125,4.625/
&DEVC ID='Raum1-Reihe2-12', QUANTITY='TEMPERATURE', XYZ=44.125,28.125,4.625/
&DEVC ID='Raum1-Reihe2-13', QUANTITY='TEMPERATURE', XYZ=48.125,28.125,4.625/
&DEVC ID='Raum1-Reihe2-14', QUANTITY='TEMPERATURE', XYZ=52.125,28.125,4.625/
&DEVC ID='Raum1-Reihe2-15', QUANTITY='TEMPERATURE', XYZ=56.125,28.125,4.625/
&DEVC ID='Raum1-Reihe2-16', QUANTITY='TEMPERATURE', XYZ=59.875,28.125,4.625/
&DEVC ID='Raum1-Reihe3-01', QUANTITY='TEMPERATURE', XYZ=0.125,32.125,4.625/
&DEVC ID='Raum1-Reihe3-02', QUANTITY='TEMPERATURE', XYZ=4.125,32.125,4.625/
&DEVC ID='Raum1-Reihe3-03', QUANTITY='TEMPERATURE', XYZ=8.125,32.125,4.625/
&DEVC ID='Raum1-Reihe3-04', QUANTITY='TEMPERATURE', XYZ=12.125,32.125,4.625/
&DEVC ID='Raum1-Reihe3-05', QUANTITY='TEMPERATURE', XYZ=16.125,32.125,4.625/
&DEVC ID='Raum1-Reihe3-06', QUANTITY='TEMPERATURE', XYZ=20.125,32.125,4.625/
&DEVC ID='Raum1-Reihe3-07', QUANTITY='TEMPERATURE', XYZ=24.125,32.125,4.625/
&DEVC ID='Raum1-Reihe3-08', QUANTITY='TEMPERATURE', XYZ=28.125,32.125,4.625/
&DEVC ID='Raum1-Reihe3-09', QUANTITY='TEMPERATURE', XYZ=32.125,32.125,4.625/
&DEVC ID='Raum1-Reihe3-10', QUANTITY='TEMPERATURE', XYZ=36.125,32.125,4.625/
&DEVC ID='Raum1-Reihe3-11', QUANTITY='TEMPERATURE', XYZ=40.125,32.125,4.625/
&DEVC ID='Raum1-Reihe3-12', QUANTITY='TEMPERATURE', XYZ=44.125,32.125,4.625/
&DEVC ID='Raum1-Reihe3-13', QUANTITY='TEMPERATURE', XYZ=48.125,32.125,4.625/
&DEVC ID='Raum1-Reihe3-14', QUANTITY='TEMPERATURE', XYZ=52.125,32.125,4.625/
&DEVC ID='Raum1-Reihe3-15', QUANTITY='TEMPERATURE', XYZ=56.125,32.125,4.625/
&DEVC ID='Raum1-Reihe3-16', QUANTITY='TEMPERATURE', XYZ=59.875,32.125,4.625/
&DEVC ID='Raum1-Reihe4-01', QUANTITY='TEMPERATURE', XYZ=0.125,36.125,4.625/
&DEVC ID='Raum1-Reihe4-02', QUANTITY='TEMPERATURE', XYZ=4.125,36.125,4.625/
&DEVC ID='Raum1-Reihe4-03', QUANTITY='TEMPERATURE', XYZ=8.125,36.125,4.625/
&DEVC ID='Raum1-Reihe4-04', QUANTITY='TEMPERATURE', XYZ=12.125,36.125,4.625/
&DEVC ID='Raum1-Reihe4-05', QUANTITY='TEMPERATURE', XYZ=16.125,36.125,4.625/
&DEVC ID='Raum1-Reihe4-06', QUANTITY='TEMPERATURE', XYZ=20.125,36.125,4.625/
&DEVC ID='Raum1-Reihe4-07', QUANTITY='TEMPERATURE', XYZ=24.125,36.125,4.625/
&DEVC ID='Raum1-Reihe4-08', QUANTITY='TEMPERATURE', XYZ=28.125,36.125,4.625/
&DEVC ID='Raum1-Reihe4-09', QUANTITY='TEMPERATURE', XYZ=32.125,36.125,4.625/
&DEVC ID='Raum1-Reihe4-10', QUANTITY='TEMPERATURE', XYZ=36.125,36.125,4.625/
&DEVC ID='Raum1-Reihe4-11', QUANTITY='TEMPERATURE', XYZ=40.125,36.125,4.625/
&DEVC ID='Raum1-Reihe4-12', QUANTITY='TEMPERATURE', XYZ=44.125,36.125,4.625/
&DEVC ID='Raum1-Reihe4-13', QUANTITY='TEMPERATURE', XYZ=48.125,36.125,4.625/
&DEVC ID='Raum1-Reihe4-14', QUANTITY='TEMPERATURE', XYZ=52.125,36.125,4.625/
&DEVC ID='Raum1-Reihe4-15', QUANTITY='TEMPERATURE', XYZ=56.125,36.125,4.625/
&DEVC ID='Raum1-Reihe4-16', QUANTITY='TEMPERATURE', XYZ=59.875,36.125,4.625/
&DEVC ID='Raum1-Reihe5-01', QUANTITY='TEMPERATURE', XYZ=0.125,39.875,4.625/
&DEVC ID='Raum1-Reihe5-02', QUANTITY='TEMPERATURE', XYZ=4.125,39.875,4.625/
&DEVC ID='Raum1-Reihe5-03', QUANTITY='TEMPERATURE', XYZ=8.125,39.875,4.625/
&DEVC ID='Raum1-Reihe5-04', QUANTITY='TEMPERATURE', XYZ=12.125,39.875,4.625/
&DEVC ID='Raum1-Reihe5-05', QUANTITY='TEMPERATURE', XYZ=16.125,39.875,4.625/
&DEVC ID='Raum1-Reihe5-06', QUANTITY='TEMPERATURE', XYZ=20.125,39.875,4.625/
&DEVC ID='Raum1-Reihe5-07', QUANTITY='TEMPERATURE', XYZ=24.125,39.875,4.625/
&DEVC ID='Raum1-Reihe5-08', QUANTITY='TEMPERATURE', XYZ=28.125,39.875,4.625/
&DEVC ID='Raum1-Reihe5-09', QUANTITY='TEMPERATURE', XYZ=32.125,39.875,4.625/
&DEVC ID='Raum1-Reihe5-10', QUANTITY='TEMPERATURE', XYZ=36.125,39.875,4.625/
&DEVC ID='Raum1-Reihe5-11', QUANTITY='TEMPERATURE', XYZ=40.125,39.875,4.625/
&DEVC ID='Raum1-Reihe5-12', QUANTITY='TEMPERATURE', XYZ=44.125,39.875,4.625/
&DEVC ID='Raum1-Reihe5-13', QUANTITY='TEMPERATURE', XYZ=48.125,39.875,4.625/
&DEVC ID='Raum1-Reihe5-14', QUANTITY='TEMPERATURE', XYZ=52.125,39.875,4.625/
&DEVC ID='Raum1-Reihe5-15', QUANTITY='TEMPERATURE', XYZ=56.125,39.875,4.625/
&DEVC ID='Raum1-Reihe5-16', QUANTITY='TEMPERATURE', XYZ=59.875,39.875,4.625/
&DEVC ID='Raum4-Reihe1-01', QUANTITY='TEMPERATURE', XYZ=0.125,24.125,9.625/
&DEVC ID='Raum4-Reihe1-02', QUANTITY='TEMPERATURE', XYZ=4.125,24.125,9.625/
&DEVC ID='Raum4-Reihe1-03', QUANTITY='TEMPERATURE', XYZ=8.125,24.125,9.625/
&DEVC ID='Raum4-Reihe1-04', QUANTITY='TEMPERATURE', XYZ=12.125,24.125,9.625/
&DEVC ID='Raum4-Reihe1-05', QUANTITY='TEMPERATURE', XYZ=16.125,24.125,9.625/
&DEVC ID='Raum4-Reihe1-06', QUANTITY='TEMPERATURE', XYZ=20.125,24.125,9.625/
&DEVC ID='Raum4-Reihe1-07', QUANTITY='TEMPERATURE', XYZ=24.125,24.125,9.625/
&DEVC ID='Raum4-Reihe1-08', QUANTITY='TEMPERATURE', XYZ=28.125,24.125,9.625/
&DEVC ID='Raum4-Reihe1-09', QUANTITY='TEMPERATURE', XYZ=32.125,24.125,9.625/
&DEVC ID='Raum4-Reihe1-10', QUANTITY='TEMPERATURE', XYZ=36.125,24.125,9.625/
&DEVC ID='Raum4-Reihe1-11', QUANTITY='TEMPERATURE', XYZ=40.125,24.125,9.625/
&DEVC ID='Raum4-Reihe1-12', QUANTITY='TEMPERATURE', XYZ=44.125,24.125,9.625/
&DEVC ID='Raum4-Reihe1-13', QUANTITY='TEMPERATURE', XYZ=48.125,24.125,9.625/
&DEVC ID='Raum4-Reihe1-14', QUANTITY='TEMPERATURE', XYZ=52.125,24.125,9.625/
&DEVC ID='Raum4-Reihe1-15', QUANTITY='TEMPERATURE', XYZ=56.125,24.125,9.625/
&DEVC ID='Raum4-Reihe1-16', QUANTITY='TEMPERATURE', XYZ=59.875,24.125,9.625/
&DEVC ID='Raum4-Reihe2-01', QUANTITY='TEMPERATURE', XYZ=0.125,28.125,9.625/
&DEVC ID='Raum4-Reihe2-02', QUANTITY='TEMPERATURE', XYZ=4.125,28.125,9.625/
&DEVC ID='Raum4-Reihe2-03', QUANTITY='TEMPERATURE', XYZ=8.125,28.125,9.625/
&DEVC ID='Raum4-Reihe2-04', QUANTITY='TEMPERATURE', XYZ=12.125,28.125,9.625/
&DEVC ID='Raum4-Reihe2-05', QUANTITY='TEMPERATURE', XYZ=16.125,28.125,9.625/
&DEVC ID='Raum4-Reihe2-06', QUANTITY='TEMPERATURE', XYZ=20.125,28.125,9.625/
&DEVC ID='Raum4-Reihe2-07', QUANTITY='TEMPERATURE', XYZ=24.125,28.125,9.625/
&DEVC ID='Raum4-Reihe2-08', QUANTITY='TEMPERATURE', XYZ=28.125,28.125,9.625/
&DEVC ID='Raum4-Reihe2-09', QUANTITY='TEMPERATURE', XYZ=32.125,28.125,9.625/
&DEVC ID='Raum4-Reihe2-10', QUANTITY='TEMPERATURE', XYZ=36.125,28.125,9.625/
&DEVC ID='Raum4-Reihe2-11', QUANTITY='TEMPERATURE', XYZ=40.125,28.125,9.625/
&DEVC ID='Raum4-Reihe2-12', QUANTITY='TEMPERATURE', XYZ=44.125,28.125,9.625/
&DEVC ID='Raum4-Reihe2-13', QUANTITY='TEMPERATURE', XYZ=48.125,28.125,9.625/
&DEVC ID='Raum4-Reihe2-14', QUANTITY='TEMPERATURE', XYZ=52.125,28.125,9.625/
&DEVC ID='Raum4-Reihe2-15', QUANTITY='TEMPERATURE', XYZ=56.125,28.125,9.625/
&DEVC ID='Raum4-Reihe2-16', QUANTITY='TEMPERATURE', XYZ=59.875,28.125,9.625/
&DEVC ID='Raum4-Reihe3-01', QUANTITY='TEMPERATURE', XYZ=0.125,32.125,9.625/
&DEVC ID='Raum4-Reihe3-02', QUANTITY='TEMPERATURE', XYZ=4.125,32.125,9.625/
&DEVC ID='Raum4-Reihe3-03', QUANTITY='TEMPERATURE', XYZ=8.125,32.125,9.625/
&DEVC ID='Raum4-Reihe3-04', QUANTITY='TEMPERATURE', XYZ=12.125,32.125,9.625/
&DEVC ID='Raum4-Reihe3-05', QUANTITY='TEMPERATURE', XYZ=16.125,32.125,9.625/
&DEVC ID='Raum4-Reihe3-06', QUANTITY='TEMPERATURE', XYZ=20.125,32.125,9.625/
&DEVC ID='Raum4-Reihe3-07', QUANTITY='TEMPERATURE', XYZ=24.125,32.125,9.625/
&DEVC ID='Raum4-Reihe3-08', QUANTITY='TEMPERATURE', XYZ=28.125,32.125,9.625/
&DEVC ID='Raum4-Reihe3-09', QUANTITY='TEMPERATURE', XYZ=32.125,32.125,9.625/
&DEVC ID='Raum4-Reihe3-10', QUANTITY='TEMPERATURE', XYZ=36.125,32.125,9.625/
&DEVC ID='Raum4-Reihe3-11', QUANTITY='TEMPERATURE', XYZ=40.125,32.125,9.625/
&DEVC ID='Raum4-Reihe3-12', QUANTITY='TEMPERATURE', XYZ=44.125,32.125,9.625/
&DEVC ID='Raum4-Reihe3-13', QUANTITY='TEMPERATURE', XYZ=48.125,32.125,9.625/
&DEVC ID='Raum4-Reihe3-14', QUANTITY='TEMPERATURE', XYZ=52.125,32.125,9.625/
&DEVC ID='Raum4-Reihe3-15', QUANTITY='TEMPERATURE', XYZ=56.125,32.125,9.625/
&DEVC ID='Raum4-Reihe3-16', QUANTITY='TEMPERATURE', XYZ=59.875,32.125,9.625/
&DEVC ID='Raum4-Reihe4-01', QUANTITY='TEMPERATURE', XYZ=0.125,36.125,9.625/
&DEVC ID='Raum4-Reihe4-02', QUANTITY='TEMPERATURE', XYZ=4.125,36.125,9.625/
&DEVC ID='Raum4-Reihe4-03', QUANTITY='TEMPERATURE', XYZ=8.125,36.125,9.625/
&DEVC ID='Raum4-Reihe4-04', QUANTITY='TEMPERATURE', XYZ=12.125,36.125,9.625/
&DEVC ID='Raum4-Reihe4-05', QUANTITY='TEMPERATURE', XYZ=16.125,36.125,9.625/
&DEVC ID='Raum4-Reihe4-06', QUANTITY='TEMPERATURE', XYZ=20.125,36.125,9.625/
&DEVC ID='Raum4-Reihe4-07', QUANTITY='TEMPERATURE', XYZ=24.125,36.125,9.625/
&DEVC ID='Raum4-Reihe4-08', QUANTITY='TEMPERATURE', XYZ=28.125,36.125,9.625/
&DEVC ID='Raum4-Reihe4-09', QUANTITY='TEMPERATURE', XYZ=32.125,36.125,9.625/
&DEVC ID='Raum4-Reihe4-10', QUANTITY='TEMPERATURE', XYZ=36.125,36.125,9.625/
&DEVC ID='Raum4-Reihe4-11', QUANTITY='TEMPERATURE', XYZ=40.125,36.125,9.625/
&DEVC ID='Raum4-Reihe4-12', QUANTITY='TEMPERATURE', XYZ=44.125,36.125,9.625/
&DEVC ID='Raum4-Reihe4-13', QUANTITY='TEMPERATURE', XYZ=48.125,36.125,9.625/
&DEVC ID='Raum4-Reihe4-14', QUANTITY='TEMPERATURE', XYZ=52.125,36.125,9.625/
&DEVC ID='Raum4-Reihe4-15', QUANTITY='TEMPERATURE', XYZ=56.125,36.125,9.625/
&DEVC ID='Raum4-Reihe4-16', QUANTITY='TEMPERATURE', XYZ=59.875,36.125,9.625/
&DEVC ID='Raum4-Reihe5-01', QUANTITY='TEMPERATURE', XYZ=0.125,39.875,9.625/
&DEVC ID='Raum4-Reihe5-02', QUANTITY='TEMPERATURE', XYZ=4.125,39.875,9.625/
&DEVC ID='Raum4-Reihe5-03', QUANTITY='TEMPERATURE', XYZ=8.125,39.875,9.625/
&DEVC ID='Raum4-Reihe5-04', QUANTITY='TEMPERATURE', XYZ=12.125,39.875,9.625/
&DEVC ID='Raum4-Reihe5-05', QUANTITY='TEMPERATURE', XYZ=16.125,39.875,9.625/
&DEVC ID='Raum4-Reihe5-06', QUANTITY='TEMPERATURE', XYZ=20.125,39.875,9.625/
&DEVC ID='Raum4-Reihe5-07', QUANTITY='TEMPERATURE', XYZ=24.125,39.875,9.625/
&DEVC ID='Raum4-Reihe5-08', QUANTITY='TEMPERATURE', XYZ=28.125,39.875,9.625/
&DEVC ID='Raum4-Reihe5-09', QUANTITY='TEMPERATURE', XYZ=32.125,39.875,9.625/
&DEVC ID='Raum4-Reihe5-10', QUANTITY='TEMPERATURE', XYZ=36.125,39.875,9.625/
&DEVC ID='Raum4-Reihe5-11', QUANTITY='TEMPERATURE', XYZ=40.125,39.875,9.625/
&DEVC ID='Raum4-Reihe5-12', QUANTITY='TEMPERATURE', XYZ=44.125,39.875,9.625/
&DEVC ID='Raum4-Reihe5-13', QUANTITY='TEMPERATURE', XYZ=48.125,39.875,9.625/
&DEVC ID='Raum4-Reihe5-14', QUANTITY='TEMPERATURE', XYZ=52.125,39.875,9.625/
&DEVC ID='Raum4-Reihe5-15', QUANTITY='TEMPERATURE', XYZ=56.125,39.875,9.625/
&DEVC ID='Raum4-Reihe5-16', QUANTITY='TEMPERATURE', XYZ=59.875,39.875,9.625/
&DEVC ID='Raum5-Reihe1-01', QUANTITY='TEMPERATURE', XYZ=0.125,0.125,9.625/
&DEVC ID='Raum5-Reihe1-02', QUANTITY='TEMPERATURE', XYZ=4.125,0.125,9.625/
&DEVC ID='Raum5-Reihe1-03', QUANTITY='TEMPERATURE', XYZ=8.125,0.125,9.625/
&DEVC ID='Raum5-Reihe1-04', QUANTITY='TEMPERATURE', XYZ=12.125,0.125,9.625/
&DEVC ID='Raum5-Reihe1-05', QUANTITY='TEMPERATURE', XYZ=16.125,0.125,9.625/
&DEVC ID='Raum5-Reihe1-06', QUANTITY='TEMPERATURE', XYZ=20.125,0.125,9.625/
&DEVC ID='Raum5-Reihe1-07', QUANTITY='TEMPERATURE', XYZ=24.125,0.125,9.625/
&DEVC ID='Raum5-Reihe1-08', QUANTITY='TEMPERATURE', XYZ=28.125,0.125,9.625/
&DEVC ID='Raum5-Reihe1-09', QUANTITY='TEMPERATURE', XYZ=32.125,0.125,9.625/
&DEVC ID='Raum5-Reihe1-10', QUANTITY='TEMPERATURE', XYZ=36.125,0.125,9.625/
&DEVC ID='Raum5-Reihe1-11', QUANTITY='TEMPERATURE', XYZ=40.125,0.125,9.625/
&DEVC ID='Raum5-Reihe1-12', QUANTITY='TEMPERATURE', XYZ=44.125,0.125,9.625/
&DEVC ID='Raum5-Reihe1-13', QUANTITY='TEMPERATURE', XYZ=48.125,0.125,9.625/
&DEVC ID='Raum5-Reihe1-14', QUANTITY='TEMPERATURE', XYZ=52.125,0.125,9.625/
&DEVC ID='Raum5-Reihe1-15', QUANTITY='TEMPERATURE', XYZ=56.125,0.125,9.625/
&DEVC ID='Raum5-Reihe1-16', QUANTITY='TEMPERATURE', XYZ=59.875,0.125,9.625/
&DEVC ID='Raum5-Reihe2-01', QUANTITY='TEMPERATURE', XYZ=0.125,4.125,9.625/
&DEVC ID='Raum5-Reihe2-02', QUANTITY='TEMPERATURE', XYZ=4.125,4.125,9.625/
&DEVC ID='Raum5-Reihe2-03', QUANTITY='TEMPERATURE', XYZ=8.125,4.125,9.625/
&DEVC ID='Raum5-Reihe2-04', QUANTITY='TEMPERATURE', XYZ=12.125,4.125,9.625/
&DEVC ID='Raum5-Reihe2-05', QUANTITY='TEMPERATURE', XYZ=16.125,4.125,9.625/
&DEVC ID='Raum5-Reihe2-06', QUANTITY='TEMPERATURE', XYZ=20.125,4.125,9.625/
&DEVC ID='Raum5-Reihe2-07', QUANTITY='TEMPERATURE', XYZ=24.125,4.125,9.625/
&DEVC ID='Raum5-Reihe2-08', QUANTITY='TEMPERATURE', XYZ=28.125,4.125,9.625/
&DEVC ID='Raum5-Reihe2-09', QUANTITY='TEMPERATURE', XYZ=32.125,4.125,9.625/
&DEVC ID='Raum5-Reihe2-10', QUANTITY='TEMPERATURE', XYZ=36.125,4.125,9.625/
&DEVC ID='Raum5-Reihe2-11', QUANTITY='TEMPERATURE', XYZ=40.125,4.125,9.625/
&DEVC ID='Raum5-Reihe2-12', QUANTITY='TEMPERATURE', XYZ=44.125,4.125,9.625/
&DEVC ID='Raum5-Reihe2-13', QUANTITY='TEMPERATURE', XYZ=48.125,4.125,9.625/
&DEVC ID='Raum5-Reihe2-14', QUANTITY='TEMPERATURE', XYZ=52.125,4.125,9.625/
&DEVC ID='Raum5-Reihe2-15', QUANTITY='TEMPERATURE', XYZ=56.125,4.125,9.625/
&DEVC ID='Raum5-Reihe2-16', QUANTITY='TEMPERATURE', XYZ=59.875,4.125,9.625/
&DEVC ID='Raum5-Reihe3-01', QUANTITY='TEMPERATURE', XYZ=0.125,8.125,9.625/
&DEVC ID='Raum5-Reihe3-02', QUANTITY='TEMPERATURE', XYZ=4.125,8.125,9.625/
&DEVC ID='Raum5-Reihe3-03', QUANTITY='TEMPERATURE', XYZ=8.125,8.125,9.625/
&DEVC ID='Raum5-Reihe3-04', QUANTITY='TEMPERATURE', XYZ=12.125,8.125,9.625/
&DEVC ID='Raum5-Reihe3-05', QUANTITY='TEMPERATURE', XYZ=16.125,8.125,9.625/
&DEVC ID='Raum5-Reihe3-06', QUANTITY='TEMPERATURE', XYZ=20.125,8.125,9.625/
&DEVC ID='Raum5-Reihe3-07', QUANTITY='TEMPERATURE', XYZ=24.125,8.125,9.625/
&DEVC ID='Raum5-Reihe3-08', QUANTITY='TEMPERATURE', XYZ=28.125,8.125,9.625/
&DEVC ID='Raum5-Reihe3-09', QUANTITY='TEMPERATURE', XYZ=32.125,8.125,9.625/
&DEVC ID='Raum5-Reihe3-10', QUANTITY='TEMPERATURE', XYZ=36.125,8.125,9.625/
&DEVC ID='Raum5-Reihe3-11', QUANTITY='TEMPERATURE', XYZ=40.125,8.125,9.625/
&DEVC ID='Raum5-Reihe3-12', QUANTITY='TEMPERATURE', XYZ=44.125,8.125,9.625/
&DEVC ID='Raum5-Reihe3-13', QUANTITY='TEMPERATURE', XYZ=48.125,8.125,9.625/
&DEVC ID='Raum5-Reihe3-14', QUANTITY='TEMPERATURE', XYZ=52.125,8.125,9.625/
&DEVC ID='Raum5-Reihe3-15', QUANTITY='TEMPERATURE', XYZ=56.125,8.125,9.625/
&DEVC ID='Raum5-Reihe3-16', QUANTITY='TEMPERATURE', XYZ=59.875,8.125,9.625/
&DEVC ID='Raum5-Reihe4-01', QUANTITY='TEMPERATURE', XYZ=0.125,12.125,9.625/
&DEVC ID='Raum5-Reihe4-02', QUANTITY='TEMPERATURE', XYZ=4.125,12.125,9.625/
&DEVC ID='Raum5-Reihe4-03', QUANTITY='TEMPERATURE', XYZ=8.125,12.125,9.625/
&DEVC ID='Raum5-Reihe4-04', QUANTITY='TEMPERATURE', XYZ=12.125,12.125,9.625/
&DEVC ID='Raum5-Reihe4-05', QUANTITY='TEMPERATURE', XYZ=16.125,12.125,9.625/
&DEVC ID='Raum5-Reihe4-06', QUANTITY='TEMPERATURE', XYZ=20.125,12.125,9.625/
&DEVC ID='Raum5-Reihe4-07', QUANTITY='TEMPERATURE', XYZ=24.125,12.125,9.625/
&DEVC ID='Raum5-Reihe4-08', QUANTITY='TEMPERATURE', XYZ=28.125,12.125,9.625/
&DEVC ID='Raum5-Reihe4-09', QUANTITY='TEMPERATURE', XYZ=32.125,12.125,9.625/
&DEVC ID='Raum5-Reihe4-10', QUANTITY='TEMPERATURE', XYZ=36.125,12.125,9.625/
&DEVC ID='Raum5-Reihe4-11', QUANTITY='TEMPERATURE', XYZ=40.125,12.125,9.625/
&DEVC ID='Raum5-Reihe4-12', QUANTITY='TEMPERATURE', XYZ=44.125,12.125,9.625/
&DEVC ID='Raum5-Reihe4-13', QUANTITY='TEMPERATURE', XYZ=48.125,12.125,9.625/
&DEVC ID='Raum5-Reihe4-14', QUANTITY='TEMPERATURE', XYZ=52.125,12.125,9.625/
&DEVC ID='Raum5-Reihe4-15', QUANTITY='TEMPERATURE', XYZ=56.125,12.125,9.625/
&DEVC ID='Raum5-Reihe4-16', QUANTITY='TEMPERATURE', XYZ=59.875,12.125,9.625/
&DEVC ID='Raum5-Reihe5-01', QUANTITY='TEMPERATURE', XYZ=0.125,15.875,9.625/
&DEVC ID='Raum5-Reihe5-02', QUANTITY='TEMPERATURE', XYZ=4.125,15.875,9.625/
&DEVC ID='Raum5-Reihe5-03', QUANTITY='TEMPERATURE', XYZ=8.125,15.875,9.625/
&DEVC ID='Raum5-Reihe5-04', QUANTITY='TEMPERATURE', XYZ=12.125,15.875,9.625/
&DEVC ID='Raum5-Reihe5-05', QUANTITY='TEMPERATURE', XYZ=16.125,15.875,9.625/
&DEVC ID='Raum5-Reihe5-06', QUANTITY='TEMPERATURE', XYZ=20.125,15.875,9.625/
&DEVC ID='Raum5-Reihe5-07', QUANTITY='TEMPERATURE', XYZ=24.125,15.875,9.625/
&DEVC ID='Raum5-Reihe5-08', QUANTITY='TEMPERATURE', XYZ=28.125,15.875,9.625/