&HEAD CHID='div2' /

&MESH IJK=10,20,20, XB=0,0.5,-0.01,0.01,0,1 /
&MESH IJK=10,20,20, XB=0.5,1,-0.01,0.01,0,1 /

&TIME T_END=10. / 
&PRES SOLVER = 'SCARC' /

&SURF ID='BLOW', COLOR='RED',  VEL=-1. /
&SURF ID='SUCK', COLOR='BLUE', VEL= 1. /

&VENT XB=0.0,0.0,-0.01,0.01,0.3,0.7, SURF_ID='BLOW' / 
&VENT XB=1.0,1.0,-0.01,0.01,0.3,0.7, SURF_ID='OPEN' / 

&OBST XB=0.3,0.7,-0.01,0.01,0.3,0.7, COLOR='TEAL' /

&SLCF PBY=0.0, QUANTITY='DIVERGENCE', VECTOR=.TRUE. /

&TAIL /

